
     RDKit          3D

 18 19  0  0  0  0  0  0  0  0999 V2000
    3.4096    3.1109   -0.3293 C   0  0  0  0  0  0  0  0  0  0  0  0
    3.9156    2.9829   -1.6103 C   0  0  0  0  0  0  0  0  0  0  0  0
    3.3036    2.1119   -2.4943 C   0  0  0  0  0  0  0  0  0  0  0  0
    2.1966    1.3669   -2.1083 C   0  0  0  0  0  0  0  0  0  0  0  0
    1.6916    1.4949   -0.8173 C   0  0  0  0  0  0  0  0  0  0  0  0
    2.3046    2.3769    0.0677 C   0  0  0  0  0  0  0  0  0  0  0  0
    0.5296    0.7399   -0.3353 C   0  0  0  0  0  0  0  0  0  0  0  0
    0.0236    0.9069    0.8707 C   0  0  0  0  0  0  0  0  0  0  0  0
   -0.9774    0.1129    1.5867 C   0  0  0  0  0  0  0  0  0  0  0  0
   -1.3374   -1.1841    1.2017 C   0  0  0  0  0  0  0  0  0  0  0  0
   -2.2804   -1.8951    1.9177 C   0  0  0  0  0  0  0  0  0  0  0  0
   -2.8814   -1.3171    3.0347 C   0  0  0  0  0  0  0  0  0  0  0  0
   -2.5344   -0.0461    3.4287 C   0  0  0  0  0  0  0  0  0  0  0  0
   -1.5874    0.6559    2.7067 C   0  0  0  0  0  0  0  0  0  0  0  0
   -3.8184   -2.0071    3.7557 O   0  0  0  0  0  0  0  0  0  0  0  0
    3.8136    2.0009   -3.7623 O   0  0  0  0  0  0  0  0  0  0  0  0
    3.9866    3.9709    0.5677 O   0  0  0  0  0  0  0  0  0  0  0  0
   -2.6594   -3.1611    1.5687 O   0  0  0  0  0  0  0  0  0  0  0  0
  2  1  2  0
  3  2  1  0
  4  3  2  0
  5  4  1  0
  6  5  2  0
  6  1  1  0
  7  5  1  0
  8  7  2  3
  9  8  1  0
 10  9  2  0
 11 10  1  0
 12 11  2  0
 13 12  1  0
 14 13  2  0
 14  9  1  0
 15 12  1  0
 16  3  1  0
 17  1  1  0
 18 11  1  0
M  END
$$$$
